Version 4
SHEET 1 4212 680
WIRE 448 -464 320 -464
WIRE 2224 -464 512 -464
WIRE 656 -288 464 -288
WIRE 928 -288 720 -288
WIRE 1632 -288 1424 -288
WIRE 1824 -288 1712 -288
WIRE 1968 -288 1824 -288
WIRE 2112 -288 2048 -288
WIRE 2224 -288 2224 -464
WIRE 2224 -288 2176 -288
WIRE 320 -240 320 -464
WIRE 928 -240 928 -288
WIRE 1424 -224 1424 -288
WIRE 64 -208 -48 -208
WIRE 208 -208 144 -208
WIRE 288 -208 272 -208
WIRE 464 -208 464 -288
WIRE 464 -208 352 -208
WIRE 528 -208 464 -208
WIRE 896 -208 736 -208
WIRE 976 -208 960 -208
WIRE 1216 -208 1040 -208
WIRE 1376 -208 1280 -208
WIRE 1824 -208 1824 -288
WIRE 240 -176 240 -192
WIRE 2224 -64 2224 -288
WIRE 1824 -16 1824 -144
WIRE 1248 0 1248 -176
WIRE 1808 16 1296 16
WIRE 1344 64 1296 64
WIRE 1824 80 1824 48
WIRE 1248 112 1248 80
WIRE 1424 112 1424 -144
WIRE 240 160 240 -176
WIRE 672 160 240 160
WIRE 2144 160 2144 -272
WIRE 2144 160 736 160
WIRE 2224 240 2224 16
FLAG 1344 64 0
FLAG 1376 -160 0
FLAG -48 -208 0
FLAG 2224 240 0
FLAG 1824 80 0
FLAG 1248 112 0
FLAG 1424 112 0
SYMBOL ind 1616 -272 R270
WINDOW 0 32 56 VTop 2
WINDOW 3 5 56 VBottom 2
SYMATTR InstName L1
SYMATTR Value 100µ
SYMBOL ind 1952 -272 R270
WINDOW 0 32 56 VTop 2
WINDOW 3 5 56 VBottom 2
SYMATTR InstName L2
SYMATTR Value 100µ
SYMBOL cap 1808 -208 R0
SYMATTR InstName C1
SYMATTR Value 100µ
SYMBOL e 1424 -240 R0
SYMATTR InstName E1
SYMATTR Value 600
SYMBOL e 1248 -16 M0
SYMATTR InstName E2
SYMATTR Value 2.5m
SYMBOL LTspiceControlLibrary\\Sensors\\CurrentSensor 2144 -288 R0
SYMATTR InstName U1
SYMBOL LTspiceControlLibrary\\Sensors\\CurrentSensor 1824 16 R90
SYMATTR InstName U2
SYMBOL voltage 160 -208 R90
WINDOW 0 -32 56 VBottom 2
WINDOW 3 88 56 VTop 2
WINDOW 123 60 56 VTop 2
WINDOW 39 0 0 Left 0
SYMATTR InstName V1
SYMATTR Value SINE(0 1 50 0)
SYMATTR Value2 AC 0
SYMBOL LTspiceControlLibrary\\Math\\Operands\\sub 1232 -176 R0
SYMATTR InstName U3
SYMBOL LTspiceControlLibrary\\TransferFunctions\\Proportional 720 192 M0
SYMATTR Value K=0.1
SYMATTR InstName U4
SYMBOL LTspiceControlLibrary\\Math\\Operands\\sub 224 -176 R0
SYMATTR InstName U5
SYMBOL LTspiceControlLibrary\\TransferFunctions\\2ndOrderBandPassFilter 544 -176 R0
SYMATTR Value K=300 w=2*pi*50 z=2m
SYMATTR InstName U6
SYMBOL LTspiceControlLibrary\\Math\\Operands\\add 912 -240 M180
SYMATTR InstName U7
SYMBOL LTspiceControlLibrary\\TransferFunctions\\Proportional 672 -256 R0
SYMATTR InstName U8
SYMBOL LTspiceControlLibrary\\TransferFunctions\\Proportional 992 -176 R0
SYMATTR Value K=20m
SYMATTR InstName U9
SYMBOL voltage 2224 -80 R0
WINDOW 3 24 44 Left 2
WINDOW 123 24 72 Left 2
WINDOW 39 0 0 Left 0
SYMATTR Value SINE(0 325 50 0 0 0)
SYMATTR Value2 AC 1
SYMATTR InstName V2
SYMBOL LTspiceControlLibrary\\Math\\Operands\\add 304 -240 M180
SYMATTR InstName U10
SYMBOL LTspiceControlLibrary\\TransferFunctions\\Proportional 496 -432 M0
SYMATTR Value K=280u
SYMATTR InstName U11
TEXT 120 216 Left 2 !.tran 0 400m 0 10u
